PyEnsemble v0.8

***************************************
*  DESCRIPTION
***************************************

    PyEnsemble is  a set of Python scripts used to manage an ensemble of GEOS-Chem
  or GEOS-Chem Adjoint model runs.


***************************************
*  REQUIREMENTS
***************************************

  - Python v2.5 or greater.

***************************************
*  INSTALLATION
***************************************

***************************************
* USAGE EXAMPLE
***************************************

***************************************
* LICENSE
*************************************** 
