GEOS-CHEM SIMULATION v8-01-01: GEOS-5 1-month benchmark
------------------------+------------------------------------------------------
%%% SIMULATION MENU %%% :
Start YYYYMMDD, HHMMSS  : 20080701 000000
End   YYYYMMDD, HHMMSS  : 20080716 000000
Run directory           : ./
Input restart file      : ./restart.geos5.05x0666.YYYYMMDDhh.NA
Make new restart file?  : F
Output restart file(s)  : restart.geos5.4x5.YYYYMMDDhh
Root data directory     : /data/gc/GEOS_0.5x0.666_NA/
 => GCAP       subdir   : AGRID/YYYY/MM/
 => GEOS-3     subdir   : GEOS_3/YYYY/MM/
 => GEOS-4     subdir   : GEOS_4_v4/YYYY/MM/
 => GEOS-5     subdir   : GEOS_5/YYYY/MM/
Dir w/ 1x1 emissions etc: /data/gc/GEOS_1x1/
Temporary directory     : /data/gc/tmp/
Unzip met fields?       : F
Wait for met fields?    : F
Use variable tropopause?: T
Global offsets I0, J0   : 60 200
------------------------+------------------------------------------------------
%%% TRACER MENU %%%     : 
Type of simulation      : 9
Number of Tracers       : 1                      
Tracer Entries -------> : TR#   Name  g/mole   Tracer Members; () = emitted 
Tracer #1               :   1   CH4     16.0   (CH4)
------------------------+------------------------------------------------------
%%% TRANSPORT MENU %%%  :
Turn on Transport       : T
 => Use Flux Correction?: T
 => Fill Negative Values: T 
 => IORD, JORD, KORD    : 3  3  7
Transport Timestep [min]: 10 
------------------------+------------------------------------------------------
%%% CONVECTION MENU %%% :
Turn on Cloud Conv?     : T
Turn on PBL Mixing?     : T
Convect Timestep (min)  : 10
------------------------+------------------------------------------------------
%%% EMISSIONS MENU %%%  :
Turn on emissions?      : T
Emiss timestep (min)    : 60 
Include anthro emiss?   : F
 => Scale to (1985-2005): -1
 => Use EMEP emissions? : F 
 => Use BRAVO emissions?: F 
 => Use EDGAR emissions?: F
 => Use STREETS emiss?  : F 
 => Use CAC emissions?  : F 
 => Use NEI2005 emiss?  : F
Use EPA/NEI99 (anth+bf)?: F 
    w/ ICARTT modif.?   : F 
    w/ VISTAS NOx emis? : F
Include biofuel emiss?  : F
Include biogenic emiss? : F
 => Use MEGAN inventory?: F
 => Use MEGAN for MONO? : F
Include biomass emiss?  : T
 => Seasonal biomass?   : F
 => Scaled to TOMSAI?   : F
 => Use GFED2 biomass?  :---
    => monthly GFED2?   : T 
    => 8-day GFED2?     : F 
    => 3-hr GFED2?      : F
    => synoptic GFED2?  : F
Individual NOx sources  :---
 => Use aircraft NOx?   : F
 => Use lightning NOx   : F
    => Scale glb flrate?: F
    => OTD reg redist?  : F
    => OTD loc redist?  : F
    => Use CTH param?   : F
    => Use MFLUX param? : F
    => Use PRECON param?: F
 => Use soil NOx        : F
Use SHIP emissions      :---
 => global EDGAR ?      : F
 => EMEP over EUROPE ?  : F 
 => ship SO2 Corbett ?  : F
 => ship SO2 Arctas ?   : F 
Use COOKE BC/OC (N. Am.): F   
Use AVHRR-derived LAI?  : F
------------------------+------------------------------------------------------
%%% AEROSOL MENU %%%    :
Online SULFATE AEROSOLS : F
Online CRYST/AQ AEROSOLS: F
Online CARBON  AEROSOLS : F
Online 2dy ORG AEROSOLS : F
Online DUST    AEROSOLS : F
 => Use DEAD emissions? : F
Online SEASALT AEROSOLS : F
 -- SALA radius bin [um]: 0.1  0.5
 -- SALC radius bin [um]: 0.5 10.0
Online dicarb. chem.    : F
------------------------+------------------------------------------------------
%%% DEPOSITION MENU %%% :
Turn on Dry Deposition? : F
Turn on Wet Deposition? : F
------------------------+------------------------------------------------------
%%% CHEMISTRY MENU %%%  : 
Turn on Chemistry?      : T
Chemistry Timestep [min]: 60
Use Embedded Chemistry? : F
 -- IE0, JE0, IE1, JE1  :     0    0    0    0
Read and save CSPEC_FULL: F
turn on lin. strat chem?: F
Use LINOZ for strat Ox? : F
------------------------+------------------------------------------------------
%%% OUTPUT MENU %%%     : 123456789.123456789.123456789.1--1=ZERO+2=BPCH 
Schedule output for JAN : 3000000000000000000000000000000
Schedule output for FEB : 30000000000000000000000000000  
Schedule output for MAR : 3000000000000000000000000000000
Schedule output for APR : 300000000000000000000000000000
Schedule output for MAY : 3000000000000000000000000000000
Schedule output for JUN : 300000000000000000000000000000
Schedule output for JUL : 3000000000000003000000000000000
Schedule output for AUG : 3000000000000000000000000000000
Schedule output for SEP : 300000000000000000000000000000
Schedule output for OCT : 3000000000000000000000000000000
Schedule output for NOV : 300000000000000000000000000000
Schedule output for DEC : 3000000000000000000000000000000
------------------------+------------------------------------------------------
%%% GAMAP MENU %%%      :
diaginfo.dat path       : diaginfo.dat
tracerinfo.dat path     : tracerinfo.dat
------------------------+------------------------------------------------------
%%% DIAGNOSTIC MENU %%% : 
Binary punch file name  : ctm.bpch
Diagnostic Entries ---> :  L   Tracers to print out for each diagnostic
ND01: Rn/Pb/Be source   :  0   all        
ND02: Rn/Pb/Be decay    :  0   all             
ND03: Hg emissions, P/L :  0   all                
ND04: CO2 sources       :  0   all                
ND05: Sulfate prod/loss :  0   all               
ND06: Dust aer source   :  0   all                
ND07: Carbon aer source :  0   all                
ND08: Seasalt aer source:  0   all                
ND09: -                 :  0   all                
ND10: -                 :  0   all                
ND11: Acetone sources   :  0   all                 
ND12: BL fraction       :  0   all              
ND13: Sulfur sources    :  0   all                
ND14: Cld conv mass flx :  0   all                
ND15: BL mix mass flx   :  0   all                
ND16: LS/Conv prec frac :  0   all               
ND17: Rainout fraction  :  0   all            
ND18: Washout fraction  :  0   all            
ND19: CH4 Loss from OH  : 47   all            
ND21: Optical depths    :  0   all            
ND22: J-Values          :  0   1 7 8 20 99            
      => JV time range  :      11 13
ND24: E/W transpt flx   :  0   all
ND25: N/S transpt flx   :  0   all
ND26: U/D transpt flx   :  0   all
ND27: Strat NOx,Ox,HNO3 :  0   1 2 7
ND28: Biomass emissions :  0   1 4 5 9 10 11 18 19 20 21 26 30 34 35
ND29: CO sources        :  0   all
ND30: Land Map          :  0   all
ND31: Surface pressure  :  0   all
ND32: NOx sources       :  0   all
ND33: Column tracer     :  0   all
ND34: Biofuel emissions :  0   1 4 5 9 10 11 18 19 20 21
ND35: Tracers at 500 mb :  0   all
ND36: Anthro emissions  :  0   1 4 5 9 10 18 19 21
ND37: Updraft scav frac :  0   all
ND38: Cld Conv scav loss:  0   all
ND39: Wetdep scav loss  :  0   all
ND41: Afternoon PBL ht  :  0   all
ND42: -                 :  0   all
ND43: Chem OH,NO,HO2,NO2:  0   all
  ==> OH/HO2 time range :       0 24   
  ==> NO/NO2 time range :      10 14
ND44: Drydep flx/vel    :  0   all
ND45: Tracer Conc's     : 47   all 
  ==> ND45 Time range   :       0 24
ND46: Biogenic emissions:  0   all
ND47: 24-h avg trc conc :  0   all
ND52: -                 :  0   all
ND53: -                 :  0   all
ND54: Time in t'sphere  :  0   all
ND55: Tropopause height :  0   all
ND56: -                 :  0   all
ND57: -                 :  0   all
ND58: CH4 Emissions     :  1   all
ND59: -                 :  0   all
ND60: Wetland Fraction  :  1   all
ND61: -                 :  0   all
ND62: Inst column maps  :  0   all
ND63: -                 :  0   all
ND64: -                 :  0   all
ND66: DAO 3-D fields    :  0   all
ND67: DAO 2-D fields    :  0   all
ND68: Airmass/Boxheight :  0   all
ND69: Surface area      :  0   all
ND70: Debug output      :  1   all
------------------------+------------------------------------------------------
%%% PLANEFLIGHT MENU %%%:
Turn on plane flt diag? : F
Flight track info file  : Planeflight.dat.YYYYMMDD
Output file name        : plane.log.YYYYMMDD
------------------------+------------------------------------------------------
%%% ND48 MENU %%%       :
Turn on ND48 stations   : F
Station Timeseries file : stations.YYYYMMDD
Frequency [min]         :  60
Number of stations      :   0
------------------------+------------------------------------------------------
%%% ND49 MENU %%%       :
Turn on ND49 diagnostic : F
Inst 3-D timeser. file  : tsYYYYMMDD.bpch
Tracers to include      : 94 
Frequency [min]         : 120
IMIN, IMAX of region    :  70  30
JMIN, JMAX of region    :  23  46
LMIN, LMAX of region    :   1   1
-------------------------------------------------------------------------------
%%% ND50 MENU %%%       :
Turn on ND50 diagnostic : F
24-hr avg timeser. file : ts_24h_avg.YYYYMMDD.bpch
Tracers to include      : 82 83 84 85 86 87
IMIN, IMAX of region    :   1  72
JMIN, JMAX of region    :   1  46
LMIN, LMAX of region    :   1   1
-------------------------------------------------------------------------------
%%% ND51 MENU %%%       :
Turn on ND51 diagnostic : F
LT avg timeseries file  : ts_satellite.YYYYMMDD.bpch
Tracers to include      : 82 83 84 85 86 87
GMT Hour for disk write :   0
Avg Period [LT hours]   :  10  14
IMIN, IMAX of region    :   1  72
JMIN, JMAX of region    :   1  46
LMIN, LMAX of region    :   1   1
------------------------+------------------------------------------------------
%%% PROD & LOSS MENU %%%:
Turn on P/L (ND65) diag?: F
# of levels for ND65    : 47
Save O3 P/L (ND20)?     : F
Number of P/L families  : 4   
1st chemical family     : POX: O3 NO2 2NO3 PAN PMN PPN HNO4 3N2O5 HNO3
2nd chemical family     : LOX: O3 NO2 2NO3 PAN PMN PPN HNO4 3N2O5 HNO3
3rd chemical family     : PCO: CO
4th chemical family     : LCO: CO
------------------------+------------------------------------------------------
%%% ARCHIVED OH MENU %%%: 
Dir w/ archived OH files: /data/gc/GEOS_MEAN/OHmerge/v5-07-08/
------------------------+------------------------------------------------------
%%% O3 P/L MENU %%%     : 
Dir w/ O3 P/L rate files: /data/gc/GEOS_MEAN/O3_PROD_LOSS/2003.v6-01-05/
------------------------+------------------------------------------------------
%%% NESTED GRID MENU %%%:  
Save TPCORE 4x5 BC's    : F
TPCORE 4x5 BC directory : /data/aperkins/runs/CH4/gcadj_v33e_CH4_discrete_GC/nested/BC_4x5_NA/
4x5 BC timestep [min]   : 180
LL box of 4x5 BC region :   9  26
UR box of 4x5 BC region :  29  41
1x1 offsets I0_W, J0_W  :   3   3
------------------------+------------------------------------------------------
%%% BENCHMARK MENU %%%  :  
Save benchmark output?  : F
File w/ initial Ox      : Ox.mass.initial
File w/ final Ox        : Ox.mass.final
------------------------+------------------------------------------------------
%%% UNIX CMDS MENU %%%  : 
Background symbol       : & 
Redirect symbol         :  >
Unix remove command     : rm -f
Unix pathname separator : /
Unix wildcard character : *
Unix unzip command      : gzip -dc
Zip file suffix         : .gz
------------------------+------------------------------------------------------
END OF FILE             :
------------------------+------------------------------------------------------
